CM -r 0.0287 -d 0.0653 -D 0.1301 -L 0.1509 -l 0.1690 -4 0.1199
CM FRQ: 430.00 fw: 8.46 bw: -6.90
CM FRQ: 435.00 fw: 8.71 bw: -9.98
CM FRQ: 440.00 fw: 8.92 bw: -6.96
CM SWR: 1.76 1.14 1.79
CE
GA 1 17 0.0287 -90 90 0.00075
GM 0 0 0 0 0 0.1199 0 0 1
GA 2 17 0.0287 90 270 0.00075
GM 0 0 0 0 0 -0.1199 0 0 2
GW 3 19 0 0 0.0287 -0.1199 0 0.0287 0.00075
GW 4 19 0 0 -0.0287 -0.1199 0 -0.0287 0.00075
GW 5 19 0 0 0.0287 0.1199 0 0.0287 0.00075
GW 6 19 0 0 -0.0287 0.1199 0 -0.0287 0.00075
GW 7 5 0 0 0.0287 0 0 -0.0287 0.00075
GW 8 5 0 0 -0.0287 0 0 -0.094 0.00075
GW 9 57 0.169 0 -0.094 0 0 -0.094 0.00075
GW 10 57 -0.169 0 -0.094 0 0 -0.094 0.00075
GW 11 5 0 0 0.0287 0 0 0.1588 0.00075
GW 12 57 0.1509 0 0.1588 0 0 0.1588 0.00075
GW 13 57 -0.1509 0 0.1588 0 0 0.1588 0.00075
GM 0 0 0 270 0 0 0 0.169 0
GE 0
EK 1
LD 5 0 0 0 3.77358e+07 0 0
EX 0 6 1 0 1 0 0 0 0 0
FR 0 21 0 0 430 0.5
RP 0 37 73 0 0 0 5 5 0 0
EN
