CM -r 0.0457 -d 0.0200 -l 0.1489 -4 0.1000 -D 0.1500 -H 0.2303
CM FRQ: 430.00 fw: 9.44 bw: -1.64
CM FRQ: 435.00 fw: 9.57 bw: -1.32
CM FRQ: 440.00 fw: 9.74 bw: -0.81
CM SWR: 1.67 1.34 1.82
CE
GA 1 17 0.0457 -90 90 0.00075
GM 0 0 0 0 0 0.1 0 0 1
GA 2 17 0.0457 90 270 0.00075
GM 0 0 0 0 0 -0.1 0 0 2
GW 3 19 0 0 0.0457 -0.1 0 0.0457 0.00075
GW 4 19 0 0 -0.0457 -0.1 0 -0.0457 0.00075
GW 5 19 0 0 0.0457 0.1 0 0.0457 0.00075
GW 6 19 0 0 -0.0457 0.1 0 -0.0457 0.00075
GW 7 5 0 0 0.0457 0 0 -0.0457 0.00075
GW 8 5 0 0 -0.0457 0 0 -0.1957 0.00075
GW 9 57 0.1489 0 -0.1957 0 0 -0.1957 0.00075
GW 10 57 -0.1489 0 -0.1957 0 0 -0.1957 0.00075
GM 0 0 0 270 0 0.0657 0 0.28755 0
GW 11 3 0 -0.403 0 0 -0.403 0.05725 0.0045
GW 12 19 0 -0.403 0.05725 0 -0.403 0.73875 0.0045
GW 13 3 0 -0.403 0.73875 0 -0.403 0.88875 0.0045
GW 14 3 0 -0.403 0.88875 0 -0.403 0.94975 0.0045
GW 15 3 0 0.403 0 0 0.403 0.05725 0.0045
GW 16 19 0 0.403 0.05725 0 0.403 0.73875 0.0045
GW 17 3 0 0.403 0.73875 0 0.403 0.88875 0.0045
GW 18 3 0 0.403 0.88875 0 0.403 0.94975 0.0045
GW 19 19 0 -0.403 0.88875 0 0.403 0.88875 0.01025
GW 20 3 0 -0.403 0.05725 0 -0.30225 0.05725 0.0045
GW 21 3 0 -0.30225 0.05725 0 -0.2015 0.05725 0.0045
GW 22 3 0 -0.2015 0.05725 0 -0.10075 0.05725 0.0045
GW 23 3 0 -0.10075 0.05725 0 0 0.05725 0.0045
GW 24 3 0 0 0.05725 0 0.10075 0.05725 0.0045
GW 25 3 0 0.10075 0.05725 0 0.2015 0.05725 0.0045
GW 26 3 0 0.2015 0.05725 0 0.30225 0.05725 0.0045
GW 27 3 0 0.30225 0.05725 0 0.403 0.05725 0.0045
GW 28 3 0 -0.403 0.73875 0 -0.30225 0.73875 0.0045
GW 29 3 0 -0.30225 0.73875 0 -0.2015 0.73875 0.0045
GW 30 3 0 -0.2015 0.73875 0 -0.10075 0.73875 0.0045
GW 31 3 0 -0.10075 0.73875 0 0 0.73875 0.0045
GW 32 3 0 0 0.73875 0 0.10075 0.73875 0.0045
GW 33 3 0 0.10075 0.73875 0 0.2015 0.73875 0.0045
GW 34 3 0 0.2015 0.73875 0 0.30225 0.73875 0.0045
GW 35 3 0 0.30225 0.73875 0 0.403 0.73875 0.0045
GW 36 19 0 -0.30225 0.05725 0 -0.30225 0.73875 0.00425
GW 37 19 0 -0.2015 0.05725 0 -0.2015 0.73875 0.00425
GW 38 19 0 -0.10075 0.05725 0 -0.10075 0.73875 0.00425
GW 39 19 0 0 0.05725 0 0 0.73875 0.00425
GW 40 19 0 0.10075 0.05725 0 0.10075 0.73875 0.00425
GW 41 19 0 0.2015 0.05725 0 0.2015 0.73875 0.00425
GW 42 19 0 0.30225 0.05725 0 0.30225 0.73875 0.00425
GE 0
EK 1
LD 5 0 0 0 3.77358e+07 0 0
EX 0 5 1 0 1 0 0 0 0 0
FR 0 21 0 0 430 0.5
RP 0 37 73 0 0 0 5 5 0 0
EN
