CM -r 0.0407 -d 0.0286 -l 0.1600 -4 0.1250
CM FRQ: 430.00 fw: 6.09 bw: -9.44
CM FRQ: 435.00 fw: 6.50 bw: -12.56
CM FRQ: 440.00 fw: 6.86 bw: -7.20
CM SWR: 1.80 1.16 1.79
CE
GA 1 17 0.0407 -90 90 0.00075
GM 0 0 0 0 0 0.125 0 0 1
GA 2 17 0.0407 90 270 0.00075
GM 0 0 0 0 0 -0.125 0 0 2
GW 3 19 0 0 0.0407 -0.125 0 0.0407 0.00075
GW 4 19 0 0 -0.0407 -0.125 0 -0.0407 0.00075
GW 5 19 0 0 0.0407 0.125 0 0.0407 0.00075
GW 6 19 0 0 -0.0407 0.125 0 -0.0407 0.00075
GW 7 5 0 0 0.0407 0 0 -0.0407 0.00075
GW 8 5 0 0 -0.0407 0 0 -0.0693 0.00075
GW 9 57 0.16 0 -0.0693 0 0 -0.0693 0.00075
GW 10 57 -0.16 0 -0.0693 0 0 -0.0693 0.00075
GM 0 0 0 270 0 0 0 0.1657 0
GE 0
EK 1
LD 5 0 0 0 3.77358e+07 0 0
EX 0 6 1 0 1 0 0 0 0 0
FR 0 21 0 0 430 0.5
RP 0 37 73 0 0 0 5 5 0 0
EN
