CM -r 0.2451 -4 0.4000
CM FRQ: 87.50 fw: 2.40 bw: 2.40
CM FRQ: 97.75 fw: 2.57 bw: 2.57
CM FRQ: 108.00 fw: 2.73 bw: 2.73
CM SWR: 6.57 3.36 6.76
CE
GA 1 17 0.2451 -90 90 0.00075
GM 0 0 0 0 0 0.4 0 0 1
GA 2 17 0.2451 90 270 0.00075
GM 0 0 0 0 0 -0.4 0 0 2
GW 3 19 -0.4 0 0.2451 0.4 0 0.2451 0.00075
GW 4 19 -0.4 0 -0.2451 0.4 0 -0.2451 0.00075
GM 0 0 0 0 90 0 0 0.6451 0
GE 0
EK 1
LD 5 0 0 0 3.77358e+07 0 0
EX 0 4 10 0 1 0 0 0 0 0
FR 0 21 0 0 87.5 1.025
RP 0 37 73 0 0 0 5 5 0 0
EN
