CM -r 0.0213 -d 0.0204 -l 0.1590 -4 0.1403 -D 0.0416 -H 0.3339
CM FRQ: 430.00 fw: 8.82 bw: -5.44
CM FRQ: 435.00 fw: 8.67 bw: -6.95
CM FRQ: 440.00 fw: 8.42 bw: -7.25
CM SWR: 1.78 1.35 1.54
CE
GA 1 17 0.0213 -90 90 0.00075
GM 0 0 0 0 0 0.1403 0 0 1
GA 2 17 0.0213 90 270 0.00075
GM 0 0 0 0 0 -0.1403 0 0 2
GW 3 19 0 0 0.0213 -0.1403 0 0.0213 0.00075
GW 4 19 0 0 -0.0213 -0.1403 0 -0.0213 0.00075
GW 5 19 0 0 0.0213 0.1403 0 0.0213 0.00075
GW 6 19 0 0 -0.0213 0.1403 0 -0.0213 0.00075
GW 7 5 0 0 0.0213 0 0 -0.0213 0.00075
GW 8 5 0 0 -0.0213 0 0 -0.0629 0.00075
GW 9 57 0.159 0 -0.0629 0 0 -0.0629 0.00075
GW 10 57 -0.159 0 -0.0629 0 0 -0.0629 0.00075
GM 0 0 0 270 0 0.0417 0 0.39115 0
GW 11 3 0 -0.403 0 0 -0.403 0.05725 0.0045
GW 12 19 0 -0.403 0.05725 0 -0.403 0.73875 0.0045
GW 13 3 0 -0.403 0.73875 0 -0.403 0.88875 0.0045
GW 14 3 0 -0.403 0.88875 0 -0.403 0.94975 0.0045
GW 15 3 0 0.403 0 0 0.403 0.05725 0.0045
GW 16 19 0 0.403 0.05725 0 0.403 0.73875 0.0045
GW 17 3 0 0.403 0.73875 0 0.403 0.88875 0.0045
GW 18 3 0 0.403 0.88875 0 0.403 0.94975 0.0045
GW 19 19 0 -0.403 0.88875 0 0.403 0.88875 0.01025
GW 20 3 0 -0.403 0.05725 0 -0.30225 0.05725 0.0045
GW 21 3 0 -0.30225 0.05725 0 -0.2015 0.05725 0.0045
GW 22 3 0 -0.2015 0.05725 0 -0.10075 0.05725 0.0045
GW 23 3 0 -0.10075 0.05725 0 0 0.05725 0.0045
GW 24 3 0 0 0.05725 0 0.10075 0.05725 0.0045
GW 25 3 0 0.10075 0.05725 0 0.2015 0.05725 0.0045
GW 26 3 0 0.2015 0.05725 0 0.30225 0.05725 0.0045
GW 27 3 0 0.30225 0.05725 0 0.403 0.05725 0.0045
GW 28 3 0 -0.403 0.73875 0 -0.30225 0.73875 0.0045
GW 29 3 0 -0.30225 0.73875 0 -0.2015 0.73875 0.0045
GW 30 3 0 -0.2015 0.73875 0 -0.10075 0.73875 0.0045
GW 31 3 0 -0.10075 0.73875 0 0 0.73875 0.0045
GW 32 3 0 0 0.73875 0 0.10075 0.73875 0.0045
GW 33 3 0 0.10075 0.73875 0 0.2015 0.73875 0.0045
GW 34 3 0 0.2015 0.73875 0 0.30225 0.73875 0.0045
GW 35 3 0 0.30225 0.73875 0 0.403 0.73875 0.0045
GW 36 19 0 -0.30225 0.05725 0 -0.30225 0.73875 0.00425
GW 37 19 0 -0.2015 0.05725 0 -0.2015 0.73875 0.00425
GW 38 19 0 -0.10075 0.05725 0 -0.10075 0.73875 0.00425
GW 39 19 0 0 0.05725 0 0 0.73875 0.00425
GW 40 19 0 0.10075 0.05725 0 0.10075 0.73875 0.00425
GW 41 19 0 0.2015 0.05725 0 0.2015 0.73875 0.00425
GW 42 19 0 0.30225 0.05725 0 0.30225 0.73875 0.00425
GE 0
EK 1
LD 5 0 0 0 3.77358e+07 0 0
EX 0 5 1 0 1 0 0 0 0 0
FR 0 21 0 0 430 0.5
RP 0 37 73 0 0 0 5 5 0 0
EN
