CM -l 0.3355 -r 0.3052 -d 0.0867 -4 0.0986 -5 0.0838 -H 0.0150
CM FRQ: 430.00 fw: 5.42 bw: -7.81
CM FRQ: 435.00 fw: 5.54 bw: -7.20
CM FRQ: 440.00 fw: 5.63 bw: -6.35
CM SWR: 1.72 1.05 1.79
CE
GW 1 19 0.0867 0 0 0.0867 -0.16775 0 0.00075
GW 2 1 0.0867 0 0 0.0867 0.0986 0 0.00075
GW 3 1 0.0867 0.0986 0 0.0867 0.16775 0 0.00075
GW 4 19 0 0 0 0 0.1526 0 0.00075
GW 5 1 0 0 0 0 -0.0838 0 0.00075
GW 6 1 0 -0.0838 0 0 -0.1526 0 0.00075
GW 7 5 0 0 0 0.0867 0 0 0.00075
GW 8 1 0.0867 0 0 0.0867 0 0.015 0.00075
GW 9 1 0.0867 0.0986 0 0.0867 0.0986 0.015 0.00075
GW 10 1 0 -0.0838 0 0 -0.0838 0.015 0.00075
GW 11 1 0.0867 0 0 0 -0.0838 0.015 0.00075
GW 12 1 0.0867 0 0 0.0867 0.0986 0.015 0.00075
GE 0
TL 8 1 11 1 358.8413797 0.15345 0 0 0 0
TL 8 1 12 1 358.8413797 0.08874 0 0 0 0
EK 1
LD 5 0 0 0 3.77358e+07 0 0
EX 0 8 1 0 1 0 0 0 0 0
FR 0 21 0 0 430 0.5
RP 0 37 73 0 0 0 5 5 0 0
EN
