CM -c belden_8295 -d 1.4344915265 -l 0.1753632447 -f 28.85 -z 50.00-500.00j
CM FRQ: 28.84 fw: -103.03 bw: -103.03
CM FRQ: 28.85 fw: -103.03 bw: -103.03
CM FRQ: 28.86 fw: -103.02 bw: -103.02
CM SWR: 1.02 1.00 1.02
CE
GW 1 1 0 0 0 0.005 0 0 0.002
GW 2 1 0 0.005 0 0.005 0.005 0 0.002
GW 3 1 0 0.005 -0.005 0.005 0.005 -0.005 0.002
GW 4 1 0 0.01 0 0.005 0.01 0 0.002
GE 0
EK 1
EX 0 4 1 0 1 0 0 0 0 0
NT 2 1 1 1 0.000318039288 -0.005262235201 0.0002303542625 -0.02067690182 0.0005160590899 -0.003282037181
NT 2 1 3 1 0.002194566623 -0.1234621212 0.002191036487 -0.1250710643 1e+50 0
TL 4 1 2 1 50 9.86 0 0 0 0
FR 0 1 0 0 28.84 0
RP 0 3 3 0 0 0 90 180 0 0
NT 2 1 1 1 0.0003179429372 -0.005252500553 0.0002301781259 -0.02067442701 0.0005159627392 -0.003272302533
NT 2 1 3 1 0.002193427934 -0.1234185939 0.002189896533 -0.1250280973 1e+50 0
TL 4 1 2 1 50 9.86 0 0 0 0
FR 0 1 0 0 28.85 0
RP 0 3 3 0 0 0 90 180 0 0
NT 2 1 1 1 0.0003178467443 -0.005242768233 0.0002300020746 -0.02067195707 0.0005158665463 -0.003262570214
NT 2 1 3 1 0.002192290231 -0.1233750965 0.002188757566 -0.1249851602 1e+50 0
TL 4 1 2 1 50 9.86 0 0 0 0
FR 0 1 0 0 28.86 0
RP 0 3 3 0 0 0 90 180 0 0
EN
