CM Folded dipole
CM http://www.repeater-builder.com/antenna/pdf/440fdipl.pdf
CE
GA  1 17      0.0230 -90        90         1.5e-3
GM  0  0           0   0         0           .129    0           0            1
GA  2 17      0.0230  90       270         1.5e-3
GM  0  0           0   0         0          -.129    0           0            2
GW  3 19           0   0     -0.0230         .129    0     -0.0230       1.5e-3
GW  4 19           0   0      0.0230         .129    0      0.0230       1.5e-3
GW  5 19           0   0     -0.0230        -.129    0     -0.0230       1.5e-3
GW  6 19           0   0      0.0230        -.129    0      0.0230       1.5e-3
GW  8  5           0   0      0.0230            0    0     -0.0230       1.5e-3
GW  9  5           0   0     -0.0230            0    0      -0.038       1.5e-3
GW 10 55        3e-1   0      -0.038            0    0      -0.038       1.5e-3
GW 11 55       -3e-1   0      -0.038            0    0      -0.038       1.5e-3
GM  0  0           0 270           0            0    0         0.3            0
GE  0
EK  1
LD  5   0   0      0  37735849
FR  0 201   0      0       430      0.05
EX  0   3   1      0         1         0         0
RP  0  19  73   1000         0         0         5   5          0 0
EN
