CM Folded dipole
CM http://www.repeater-builder.com/antenna/pdf/440fdipl.pdf
CE
GA  1 17  2.2225e-2 -90        90     4.7625e-3
GM  0  0          0   0         0    1.04775e-1    0           0            1
GA  2 17  2.2225e-2  90       270     4.7625e-3
GM  0  0          0   0         0   -1.30175e-1    0           0            2
GW  3  9 9.68375e-2   0  -2.2225e-2           0    0  -2.2225e-2    1.5875e-2
GW  4  1 1.04775e-1   0  -2.2225e-2  9.68375e-2    0  -2.2225e-2    4.7625e-3
GW  5  1          0   0  -2.2225e-2    -1.27e-2    0  -2.2225e-2    4.7625e-3
GW  6 19   -1.27e-2   0  -2.2225e-2 -1.30175e-1    0  -2.2225e-2    4.7625e-3
GW  7 19 1.04775e-1   0   2.2225e-2    -1.27e-2    0   2.2225e-2    4.7625e-3
GW  7 19   -1.27e-2   0   2.2225e-2 -1.30175e-1    0   2.2225e-2    4.7625e-3
GW  8  5   -1.27e-2   0   2.2225e-2    -1.27e-2    0  -2.2225e-2      1.27e-2
GW  9  5   -1.27e-2   0  -2.2225e-2    -1.27e-2    0 -7.77875e-2      1.27e-2
GW 10 55       7e-1   0 -7.77875e-2       -7e-1    0 -7.77875e-2      5.08e-2
GM  0  0          0 270           0           0    0           3            0
GE  1
GN  2  0          0   0          13       0.005
EK  0
LD  5   0   0      0  37735849
FR  0 301   0      0 4.100E+02    0.10
EX  0   3   9      0         1         0         0
RP  0  19  72   1000         0         0         5   5          0 0
EN
