CM Folded dipole
CM http://www.repeater-builder.com/antenna/pdf/440fdipl.pdf
CE
GA  1 17        0.01 -90          90       7.5e-4
GM  0  0           0   0           0         .146    0           0            1
GA  2 17        0.01  90         270       7.5e-4
GM  0  0           0   0           0        -.146    0           0            2
GW  3 19           0   0       -0.01         .146    0       -0.01       7.5e-4
GW  4 19           0   0        0.01         .146    0        0.01       7.5e-4
GW  5 19           0   0       -0.01        -.146    0       -0.01       7.5e-4
GW  6 19           0   0        0.01        -.146    0        0.01       7.5e-4
GW  8  5           0   0        0.01            0    0       -0.01       7.5e-4
GW  9  5           0   0       -0.01            0    0      -0.020       7.5e-4
GW 10 55        2e-1   0      -0.020            0    0      -0.020       7.5e-4
GW 11 55       -2e-1   0      -0.020            0    0      -0.020       7.5e-4
GM  0  0           0 270           0            0    0         0.3            0
GE  0
EK  1
LD  5   0   0      0  37735849
FR  0 201   0      0       430      0.05
EX  0   3   1      0         1         0         0
RP  0  37  73   1000         0         0         5   5          0 0
EN
