CM Folded dipole
CM http://www.repeater-builder.com/antenna/pdf/440fdipl.pdf
CE
GA  1 17   2.2225e-2 -90        90         1.5e-3
GM  0  0           0   0         0    1.117475e-1    0           0            1
GA  2 17   2.2225e-2  90       270         1.5e-3
GM  0  0           0   0         0   -1.117475e-1    0           0            2
GW  3 19           0   0  -2.2225e-2  1.117475e-1    0  -2.2225e-2       1.5e-3
GW  3 19           0   0   2.2225e-2  1.117475e-1    0   2.2225e-2       1.5e-3
GW  3 19           0   0  -2.2225e-2 -1.117475e-1    0  -2.2225e-2       1.5e-3
GW  3 19           0   0   2.2225e-2 -1.117475e-1    0   2.2225e-2       1.5e-3
GW  8  5           0   0   2.2225e-2            0    0  -2.2225e-2       1.5e-3
GW  9  5           0   0  -2.2225e-2            0    0 -7.77875e-2       1.5e-3
GW 10 55        3e-1   0 -7.77875e-2        -3e-1    0 -7.77875e-2       1.5e-3
GM  0  0           0 270           0            0    0         0.3            0
GE  0
GN  2  0           0   0          13        0.005
EK  0
LD  5   0   0      0  37735849
FR  0 301   0      0 4.550E+02    0.10
EX  0   3   1      0         1         0         0
RP  0  19  72   1000         0         0         5   5          0 0
EN
